<?xml version="1.0" encoding="UTF-8"?>

<!-- generated on 2025-09-16 18:31:03 by Eclipse SUMO netedit Version 1.24.0
<neteditConfiguration xmlns:xsi="http://www.w3.org/2001/XMLSchema-instance" xsi:noNamespaceSchemaLocation="http://sumo.dlr.de/xsd/neteditConfiguration.xsd">

    <input>
        <sumocfg-file value="C:\Users\91950\OneDrive\Desktop\traffic\net.sumocfg"/>
        <route-files value="C:\Users\91950\OneDrive\Desktop\traffic\Sumo2Unity.rou.xml,C:\Users\91950\OneDrive\Desktop\traffic\net.rou.xml,C:\Users\91950\OneDrive\Desktop\Sumo2Unity.rou.xml"/>
        <sumo-net-file value="C:\Users\91950\OneDrive\Desktop\traffic\net.net.xml"/>
    </input>

    <output>
        <output-file value="C:\Users\91950\OneDrive\Desktop\traffic\net.net.xml"/>
    </output>

    <processing>
        <geometry.min-radius.fix.railways value="false"/>
        <geometry.avoid-overlap value="false"/>
        <geometry.max-grade.fix value="false"/>
        <offset.disable-normalization value="true"/>
        <lefthand value="0"/>
    </processing>

    <junctions>
        <no-turnarounds value="true"/>
        <junctions.corner-detail value="5"/>
        <junctions.limit-turn-speed value="5.50"/>
        <rectangular-lane-cut value="0"/>
    </junctions>

    <pedestrian>
        <walkingareas value="0"/>
    </pedestrian>

    <netedit>
        <ignore.additionalelements value="0"/>
        <ignore.routeelements value="0"/>
    </netedit>

</neteditConfiguration>
-->

<net version="1.20" junctionCornerDetail="5" limitTurnSpeed="5.50" avoidOverlap="0" xmlns:xsi="http://www.w3.org/2001/XMLSchema-instance" xsi:noNamespaceSchemaLocation="http://sumo.dlr.de/xsd/net_file.xsd">

    <location netOffset="0.00,0.00" convBoundary="-117.09,-52.58,152.29,72.36" origBoundary="-10000000000.00,-10000000000.00,10000000000.00,10000000000.00" projParameter="!"/>

    <edge id=":J0_0" function="internal">
        <lane id=":J0_0_0" index="0" speed="6.69" length="9.18" shape="-71.18,38.30 -73.69,38.69 -75.51,39.75 -76.64,41.49 -77.10,43.91"/>
    </edge>
    <edge id=":J0_1" function="internal">
        <lane id=":J0_1_0" index="0" speed="7.92" length="14.18" shape="-71.18,38.30 -75.05,37.82 -77.80,36.20 -79.43,33.46 -79.95,29.59"/>
    </edge>
    <edge id=":J0_2" function="internal">
        <lane id=":J0_2_0" index="0" speed="6.49" length="9.03" shape="-76.75,29.62 -76.42,32.07 -75.38,33.83 -73.64,34.88 -71.18,35.23"/>
    </edge>
    <edge id=":J0_3" function="internal">
        <lane id=":J0_3_0" index="0" speed="13.89" length="14.29" shape="-76.75,29.62 -77.10,43.91"/>
    </edge>
    <edge id=":J0_4" function="internal">
        <lane id=":J0_4_0" index="0" speed="13.89" length="14.19" shape="-80.30,43.78 -79.95,29.59"/>
    </edge>
    <edge id=":J0_5" function="internal">
        <lane id=":J0_5_0" index="0" speed="8.10" length="3.80" shape="-80.30,43.78 -79.60,40.04"/>
    </edge>
    <edge id=":J0_6" function="internal">
        <lane id=":J0_6_0" index="0" speed="8.10" length="10.32" shape="-79.60,40.04 -77.84,37.37 -75.04,35.76 -71.18,35.23"/>
    </edge>
    <edge id=":J1_0" function="internal">
        <lane id=":J1_0_0" index="0" speed="6.51" length="8.90" shape="85.99,43.91 85.59,41.52 84.53,39.80 82.79,38.77 80.39,38.43"/>
    </edge>
    <edge id=":J1_1" function="internal">
        <lane id=":J1_1_0" index="0" speed="13.89" length="14.17" shape="85.99,43.91 85.99,29.75"/>
    </edge>
    <edge id=":J1_2" function="internal">
        <lane id=":J1_2_0" index="0" speed="13.89" length="14.04" shape="89.19,29.81 89.18,43.85"/>
    </edge>
    <edge id=":J1_3" function="internal">
        <lane id=":J1_3_0" index="0" speed="8.01" length="3.82" shape="89.19,29.81 88.57,33.58"/>
    </edge>
    <edge id=":J1_6" function="internal">
        <lane id=":J1_6_0" index="0" speed="8.01" length="10.16" shape="88.57,33.58 86.90,36.28 84.17,37.89 80.39,38.43"/>
    </edge>
    <edge id=":J1_4" function="internal">
        <lane id=":J1_4_0" index="0" speed="6.51" length="8.90" shape="80.39,35.23 82.79,34.89 84.53,33.86 85.60,32.15 85.99,29.75"/>
    </edge>
    <edge id=":J1_5" function="internal">
        <lane id=":J1_5_0" index="0" speed="8.01" length="13.98" shape="80.39,35.23 84.17,35.77 86.90,37.38 88.57,40.08 89.18,43.85"/>
    </edge>
    <edge id=":J2_0" function="internal">
        <lane id=":J2_0_0" index="0" speed="13.89" length="14.51" shape="89.53,0.84 89.50,15.35"/>
    </edge>
    <edge id=":J2_1" function="internal">
        <lane id=":J2_1_0" index="0" speed="7.95" length="4.19" shape="89.53,0.84 89.04,4.69 88.88,4.95"/>
    </edge>
    <edge id=":J2_6" function="internal">
        <lane id=":J2_6_0" index="0" speed="7.95" length="10.02" shape="88.88,4.95 87.42,7.45 84.67,9.09 80.78,9.64"/>
    </edge>
    <edge id=":J2_2" function="internal">
        <lane id=":J2_2_0" index="0" speed="6.53" length="9.06" shape="80.79,6.60 83.25,6.20 84.99,5.11 86.02,3.34 86.33,0.89"/>
    </edge>
    <edge id=":J2_3" function="internal">
        <lane id=":J2_3_0" index="0" speed="7.89" length="14.21" shape="80.79,6.60 84.67,7.08 87.41,8.69 89.02,11.45 89.50,15.35"/>
    </edge>
    <edge id=":J2_4" function="internal">
        <lane id=":J2_4_0" index="0" speed="6.46" length="9.03" shape="86.30,15.28 86.00,12.81 84.98,11.05 83.24,9.99 80.78,9.64"/>
    </edge>
    <edge id=":J2_5" function="internal">
        <lane id=":J2_5_0" index="0" speed="13.89" length="14.39" shape="86.30,15.28 86.33,0.89"/>
    </edge>
    <edge id=":J28_0" function="internal">
        <lane id=":J28_0_0" index="0" speed="13.89" length="14.16" shape="-37.83,73.36 -51.99,73.38"/>
    </edge>
    <edge id=":J28_1" function="internal">
        <lane id=":J28_1_0" index="0" speed="8.00" length="3.84" shape="-37.83,73.36 -41.63,72.77"/>
    </edge>
    <edge id=":J28_6" function="internal">
        <lane id=":J28_6_0" index="0" speed="8.00" length="10.21" shape="-41.63,72.77 -44.34,71.11 -45.97,68.37 -46.51,64.57"/>
    </edge>
    <edge id=":J28_2" function="internal">
        <lane id=":J28_2_0" index="0" speed="6.51" length="8.94" shape="-43.31,64.57 -42.96,66.99 -41.93,68.73 -40.20,69.79 -37.78,70.17"/>
    </edge>
    <edge id=":J28_3" function="internal">
        <lane id=":J28_3_0" index="0" speed="8.01" length="14.05" shape="-43.31,64.57 -43.85,68.37 -45.48,71.11 -48.19,72.78 -51.99,73.38"/>
    </edge>
    <edge id=":J28_4" function="internal">
        <lane id=":J28_4_0" index="0" speed="6.51" length="8.95" shape="-52.03,70.18 -49.62,69.79 -47.89,68.73 -46.86,66.99 -46.51,64.57"/>
    </edge>
    <edge id=":J28_5" function="internal">
        <lane id=":J28_5_0" index="0" speed="13.89" length="14.25" shape="-52.03,70.18 -37.78,70.17"/>
    </edge>
    <edge id=":J29_0" function="internal">
        <lane id=":J29_0_0" index="0" speed="13.89" length="14.46" shape="1.26,73.79 -13.21,73.69"/>
    </edge>
    <edge id=":J29_1" function="internal">
        <lane id=":J29_1_0" index="0" speed="7.97" length="4.13" shape="1.26,73.79 -2.62,73.23 -2.80,73.12"/>
    </edge>
    <edge id=":J29_6" function="internal">
        <lane id=":J29_6_0" index="0" speed="7.97" length="10.13" shape="-2.80,73.12 -5.37,71.57 -6.98,68.79 -7.47,64.91"/>
    </edge>
    <edge id=":J29_2" function="internal">
        <lane id=":J29_2_0" index="0" speed="6.47" length="9.03" shape="-4.27,64.96 -3.96,67.42 -2.94,69.18 -1.20,70.24 1.26,70.59"/>
    </edge>
    <edge id=":J29_3" function="internal">
        <lane id=":J29_3_0" index="0" speed="8.03" length="14.23" shape="-4.27,64.96 -4.89,68.83 -6.58,71.57 -9.36,73.19 -13.21,73.69"/>
    </edge>
    <edge id=":J29_4" function="internal">
        <lane id=":J29_4_0" index="0" speed="6.54" length="9.09" shape="-13.16,70.49 -10.71,70.17 -8.94,69.13 -7.86,67.38 -7.47,64.91"/>
    </edge>
    <edge id=":J29_5" function="internal">
        <lane id=":J29_5_0" index="0" speed="13.89" length="14.42" shape="-13.16,70.49 1.26,70.59"/>
    </edge>
    <edge id=":J3_0" function="internal">
        <lane id=":J3_0_0" index="0" speed="6.53" length="9.04" shape="-70.96,9.41 -73.42,9.76 -75.19,10.80 -76.26,12.54 -76.63,14.97"/>
    </edge>
    <edge id=":J3_1" function="internal">
        <lane id=":J3_1_0" index="0" speed="7.91" length="14.14" shape="-70.96,9.41 -74.82,8.86 -77.54,7.20 -79.12,4.44 -79.56,0.59"/>
    </edge>
    <edge id=":J3_2" function="internal">
        <lane id=":J3_2_0" index="0" speed="6.53" length="9.08" shape="-76.36,0.68 -76.08,3.13 -75.07,4.91 -73.33,6.01 -70.86,6.44"/>
    </edge>
    <edge id=":J3_3" function="internal">
        <lane id=":J3_3_0" index="0" speed="13.89" length="14.29" shape="-76.36,0.68 -76.63,14.97"/>
    </edge>
    <edge id=":J3_4" function="internal">
        <lane id=":J3_4_0" index="0" speed="13.89" length="14.36" shape="-79.83,14.95 -79.56,0.59"/>
    </edge>
    <edge id=":J3_5" function="internal">
        <lane id=":J3_5_0" index="0" speed="7.93" length="4.11" shape="-79.83,14.95 -79.24,11.11 -79.12,10.92"/>
    </edge>
    <edge id=":J3_6" function="internal">
        <lane id=":J3_6_0" index="0" speed="7.93" length="10.07" shape="-79.12,10.92 -77.55,8.42 -74.76,6.86 -70.86,6.44"/>
    </edge>
    <edge id=":J30_0" function="internal">
        <lane id=":J30_0_0" index="0" speed="13.89" length="14.38" shape="43.40,73.81 29.02,73.79"/>
    </edge>
    <edge id=":J30_1" function="internal">
        <lane id=":J30_1_0" index="0" speed="7.99" length="4.06" shape="43.40,73.81 39.54,73.25 39.40,73.17"/>
    </edge>
    <edge id=":J30_6" function="internal">
        <lane id=":J30_6_0" index="0" speed="7.99" length="10.16" shape="39.40,73.17 36.80,71.58 35.17,68.81 34.66,64.95"/>
    </edge>
    <edge id=":J30_2" function="internal">
        <lane id=":J30_2_0" index="0" speed="6.49" length="9.03" shape="37.86,64.98 38.19,67.44 39.22,69.20 40.96,70.25 43.41,70.61"/>
    </edge>
    <edge id=":J30_3" function="internal">
        <lane id=":J30_3_0" index="0" speed="8.04" length="14.20" shape="37.86,64.98 37.27,68.84 35.60,71.59 32.85,73.24 29.02,73.79"/>
    </edge>
    <edge id=":J30_4" function="internal">
        <lane id=":J30_4_0" index="0" speed="6.55" length="9.08" shape="29.02,70.59 31.46,70.24 33.22,69.18 34.29,67.41 34.66,64.95"/>
    </edge>
    <edge id=":J30_5" function="internal">
        <lane id=":J30_5_0" index="0" speed="13.89" length="14.40" shape="29.02,70.59 43.41,70.61"/>
    </edge>
    <edge id=":J31_0" function="internal">
        <lane id=":J31_0_0" index="0" speed="6.45" length="9.03" shape="33.33,-44.80 32.94,-47.26 31.85,-48.97 30.07,-49.95 27.59,-50.19"/>
    </edge>
    <edge id=":J31_1" function="internal">
        <lane id=":J31_1_0" index="0" speed="7.99" length="14.28" shape="33.33,-44.80 33.82,-48.70 35.43,-51.50 38.16,-53.18 42.03,-53.77"/>
    </edge>
    <edge id=":J31_2" function="internal">
        <lane id=":J31_2_0" index="0" speed="6.49" length="9.07" shape="42.05,-50.57 39.60,-50.20 37.86,-49.12 36.84,-47.34 36.53,-44.86"/>
    </edge>
    <edge id=":J31_3" function="internal">
        <lane id=":J31_3_0" index="0" speed="13.89" length="14.46" shape="42.05,-50.57 27.59,-50.19"/>
    </edge>
    <edge id=":J31_4" function="internal">
        <lane id=":J31_4_0" index="0" speed="13.89" length="14.58" shape="27.45,-53.39 42.03,-53.77"/>
    </edge>
    <edge id=":J31_5" function="internal">
        <lane id=":J31_5_0" index="0" speed="7.95" length="4.24" shape="27.45,-53.39 31.36,-53.01 31.63,-52.86"/>
    </edge>
    <edge id=":J31_6" function="internal">
        <lane id=":J31_6_0" index="0" speed="7.95" length="10.06" shape="31.63,-52.86 34.18,-51.46 35.90,-48.74 36.53,-44.86"/>
    </edge>
    <edge id=":J32_0" function="internal">
        <lane id=":J32_0_0" index="0" speed="6.69" length="9.19" shape="3.84,-49.12 1.43,-48.65 -0.30,-47.50 -1.35,-45.67 -1.72,-43.15"/>
    </edge>
    <edge id=":J32_1" function="internal">
        <lane id=":J32_1_0" index="0" speed="13.89" length="14.33" shape="3.84,-49.12 -10.48,-48.80"/>
    </edge>
    <edge id=":J32_2" function="internal">
        <lane id=":J32_2_0" index="0" speed="13.89" length="14.18" shape="-10.48,-52.00 3.70,-52.32"/>
    </edge>
    <edge id=":J32_3" function="internal">
        <lane id=":J32_3_0" index="0" speed="7.98" length="3.91" shape="-10.48,-52.00 -6.62,-51.45"/>
    </edge>
    <edge id=":J32_6" function="internal">
        <lane id=":J32_6_0" index="0" speed="7.98" length="10.33" shape="-6.62,-51.45 -3.87,-49.79 -2.24,-47.02 -1.72,-43.15"/>
    </edge>
    <edge id=":J32_4" function="internal">
        <lane id=":J32_4_0" index="0" speed="6.49" length="9.03" shape="-4.92,-43.18 -5.25,-45.64 -6.28,-47.40 -8.03,-48.45 -10.48,-48.80"/>
    </edge>
    <edge id=":J32_5" function="internal">
        <lane id=":J32_5_0" index="0" speed="8.15" length="14.15" shape="-4.92,-43.18 -4.35,-47.03 -2.72,-49.84 -0.04,-51.60 3.70,-52.32"/>
    </edge>
    <edge id=":J33_0" function="internal">
        <lane id=":J33_0_0" index="0" speed="6.60" length="9.19" shape="-46.83,-43.01 -47.25,-45.53 -48.34,-47.33 -50.11,-48.39 -52.56,-48.72"/>
    </edge>
    <edge id=":J33_1" function="internal">
        <lane id=":J33_1_0" index="0" speed="7.97" length="14.37" shape="-46.83,-43.01 -46.38,-46.95 -44.77,-49.75 -42.01,-51.44 -38.10,-52.00"/>
    </edge>
    <edge id=":J33_2" function="internal">
        <lane id=":J33_2_0" index="0" speed="6.42" length="9.03" shape="-38.10,-48.80 -40.57,-48.45 -42.30,-47.39 -43.29,-45.62 -43.55,-43.14"/>
    </edge>
    <edge id=":J33_3" function="internal">
        <lane id=":J33_3_0" index="0" speed="13.89" length="14.46" shape="-38.10,-48.80 -52.56,-48.72"/>
    </edge>
    <edge id=":J33_4" function="internal">
        <lane id=":J33_4_0" index="0" speed="13.89" length="14.49" shape="-52.59,-51.92 -38.10,-52.00"/>
    </edge>
    <edge id=":J33_5" function="internal">
        <lane id=":J33_5_0" index="0" speed="8.11" length="4.07" shape="-52.59,-51.92 -48.76,-51.41 -48.58,-51.30"/>
    </edge>
    <edge id=":J33_6" function="internal">
        <lane id=":J33_6_0" index="0" speed="8.11" length="10.22" shape="-48.58,-51.30 -45.98,-49.77 -44.24,-47.02 -43.55,-43.14"/>
    </edge>
    <edge id=":J34_0" function="internal">
        <lane id=":J34_0_0" index="0" speed="6.57" length="9.13" shape="95.15,-50.87 92.71,-50.51 90.95,-49.44 89.88,-47.66 89.50,-45.17"/>
    </edge>
    <edge id=":J34_1" function="internal">
        <lane id=":J34_1_0" index="0" speed="13.89" length="14.41" shape="95.15,-50.87 80.74,-50.81"/>
    </edge>
    <edge id=":J34_2" function="internal">
        <lane id=":J34_2_0" index="0" speed="13.89" length="14.42" shape="80.72,-54.01 95.15,-54.07"/>
    </edge>
    <edge id=":J34_3" function="internal">
        <lane id=":J34_3_0" index="0" speed="7.96" length="4.10" shape="80.72,-54.01 84.61,-53.48 84.76,-53.39"/>
    </edge>
    <edge id=":J34_6" function="internal">
        <lane id=":J34_6_0" index="0" speed="7.96" length="10.17" shape="84.76,-53.39 87.37,-51.83 89.00,-49.06 89.50,-45.17"/>
    </edge>
    <edge id=":J34_4" function="internal">
        <lane id=":J34_4_0" index="0" speed="6.46" length="9.03" shape="86.30,-45.22 85.98,-47.68 84.95,-49.43 83.20,-50.48 80.74,-50.81"/>
    </edge>
    <edge id=":J34_5" function="internal">
        <lane id=":J34_5_0" index="0" speed="8.06" length="14.23" shape="86.30,-45.22 86.90,-49.09 88.57,-51.85 91.32,-53.51 95.15,-54.07"/>
    </edge>
    <edge id=":J35_0" function="internal">
        <lane id=":J35_0_0" index="0" speed="6.07" length="7.88" shape="89.70,69.05 89.44,71.20 88.55,72.73 87.03,73.65 84.89,73.95"/>
    </edge>
    <edge id=":J35_1" function="internal">
        <lane id=":J35_1_0" index="0" speed="3.90" length="2.63" shape="84.90,70.75 85.61,70.65 86.12,70.34 86.42,69.83 86.50,69.12"/>
    </edge>
    <edge id=":J36_0" function="internal">
        <lane id=":J36_0_0" index="0" speed="13.89" length="14.51" shape="-72.45,73.68 -86.97,73.74"/>
    </edge>
    <edge id=":J36_1" function="internal">
        <lane id=":J36_1_0" index="0" speed="7.90" length="4.20" shape="-72.45,73.68 -76.40,73.17 -76.59,73.06"/>
    </edge>
    <edge id=":J36_6" function="internal">
        <lane id=":J36_6_0" index="0" speed="7.90" length="10.21" shape="-76.59,73.06 -79.17,71.51 -80.75,68.71 -81.16,64.75"/>
    </edge>
    <edge id=":J36_2" function="internal">
        <lane id=":J36_2_0" index="0" speed="6.39" length="9.04" shape="-77.96,64.88 -77.71,67.36 -76.71,69.12 -74.98,70.16 -72.50,70.48"/>
    </edge>
    <edge id=":J36_3" function="internal">
        <lane id=":J36_3_0" index="0" speed="8.13" length="14.30" shape="-77.96,64.88 -78.66,68.78 -80.39,71.55 -83.16,73.21 -86.97,73.74"/>
    </edge>
    <edge id=":J36_4" function="internal">
        <lane id=":J36_4_0" index="0" speed="6.66" length="9.27" shape="-86.94,70.54 -84.50,70.19 -82.72,69.11 -81.61,67.30 -81.16,64.75"/>
    </edge>
    <edge id=":J36_5" function="internal">
        <lane id=":J36_5_0" index="0" speed="13.89" length="14.44" shape="-86.94,70.54 -72.50,70.48"/>
    </edge>
    <edge id=":J37_0" function="internal">
        <lane id=":J37_0_0" index="0" speed="6.07" length="7.91" shape="-79.95,-46.69 -79.73,-48.85 -78.87,-50.41 -77.36,-51.35 -75.21,-51.68"/>
    </edge>
    <edge id=":J37_1" function="internal">
        <lane id=":J37_1_0" index="0" speed="3.90" length="2.64" shape="-75.17,-48.49 -75.89,-48.37 -76.39,-48.06 -76.68,-47.54 -76.76,-46.82"/>
    </edge>
    <edge id=":J4_0" function="internal">
        <lane id=":J4_0_0" index="0" speed="6.48" length="8.99" shape="-70.21,-19.85 -72.65,-19.59 -74.42,-18.60 -75.51,-16.88 -75.93,-14.44"/>
    </edge>
    <edge id=":J4_1" function="internal">
        <lane id=":J4_1_0" index="0" speed="8.22" length="14.16" shape="-70.21,-19.85 -74.02,-20.52 -76.78,-22.22 -78.52,-24.95 -79.21,-28.70"/>
    </edge>
    <edge id=":J4_2" function="internal">
        <lane id=":J4_2_0" index="0" speed="6.62" length="9.07" shape="-76.01,-28.83 -75.56,-26.41 -74.45,-24.68 -72.66,-23.64 -70.20,-23.29"/>
    </edge>
    <edge id=":J4_3" function="internal">
        <lane id=":J4_3_0" index="0" speed="13.89" length="14.39" shape="-76.01,-28.83 -75.93,-14.44"/>
    </edge>
    <edge id=":J4_4" function="internal">
        <lane id=":J4_4_0" index="0" speed="13.89" length="14.17" shape="-79.13,-14.53 -79.21,-28.70"/>
    </edge>
    <edge id=":J4_5" function="internal">
        <lane id=":J4_5_0" index="0" speed="8.07" length="3.89" shape="-79.13,-14.53 -78.47,-18.37"/>
    </edge>
    <edge id=":J4_6" function="internal">
        <lane id=":J4_6_0" index="0" speed="8.07" length="10.28" shape="-78.47,-18.37 -76.77,-21.11 -74.01,-22.75 -70.20,-23.29"/>
    </edge>
    <edge id=":J5_0" function="internal">
        <lane id=":J5_0_0" index="0" speed="6.53" length="8.97" shape="86.08,-14.22 85.69,-16.64 84.62,-18.37 82.87,-19.41 80.44,-19.76"/>
    </edge>
    <edge id=":J5_1" function="internal">
        <lane id=":J5_1_0" index="0" speed="13.89" length="14.26" shape="86.08,-14.22 86.06,-28.48"/>
    </edge>
    <edge id=":J5_2" function="internal">
        <lane id=":J5_2_0" index="0" speed="13.89" length="14.16" shape="89.26,-28.43 89.28,-14.27"/>
    </edge>
    <edge id=":J5_3" function="internal">
        <lane id=":J5_3_0" index="0" speed="8.00" length="3.85" shape="89.26,-28.43 88.66,-24.63"/>
    </edge>
    <edge id=":J5_6" function="internal">
        <lane id=":J5_6_0" index="0" speed="8.00" length="10.22" shape="88.66,-24.63 86.99,-21.92 84.25,-20.29 80.44,-19.76"/>
    </edge>
    <edge id=":J5_4" function="internal">
        <lane id=":J5_4_0" index="0" speed="6.51" length="8.95" shape="80.45,-22.96 82.87,-23.30 84.62,-24.33 85.68,-26.06 86.06,-28.48"/>
    </edge>
    <edge id=":J5_5" function="internal">
        <lane id=":J5_5_0" index="0" speed="8.02" length="14.06" shape="80.45,-22.96 84.26,-22.41 87.00,-20.78 88.67,-18.07 89.28,-14.27"/>
    </edge>
    <edge id=":clusterJ10_J23_0" function="internal">
        <lane id=":clusterJ10_J23_0_0" index="0" speed="6.86" length="10.01" shape="2.90,38.43 -0.04,38.78 -2.15,39.84 -3.44,41.60 -3.90,44.06"/>
    </edge>
    <edge id=":clusterJ10_J23_1" function="internal">
        <lane id=":clusterJ10_J23_1_0" index="0" speed="13.89" length="15.50" shape="2.90,38.43 -12.60,38.32"/>
    </edge>
    <edge id=":clusterJ10_J23_2" function="internal">
        <lane id=":clusterJ10_J23_2_0" index="0" speed="7.98" length="4.08" shape="2.90,38.43 -0.97,37.88 -1.11,37.79"/>
    </edge>
    <edge id=":clusterJ10_J23_12" function="internal">
        <lane id=":clusterJ10_J23_12_0" index="0" speed="7.98" length="10.17" shape="-1.11,37.79 -3.72,36.21 -5.34,33.44 -5.84,29.56"/>
    </edge>
    <edge id=":clusterJ10_J23_3" function="internal">
        <lane id=":clusterJ10_J23_3_0" index="0" speed="6.48" length="9.03" shape="-2.64,29.61 -2.32,32.07 -1.29,33.82 0.45,34.88 2.90,35.23"/>
    </edge>
    <edge id=":clusterJ10_J23_4" function="internal">
        <lane id=":clusterJ10_J23_4_0" index="0" speed="13.89" length="14.51" shape="-2.64,29.61 -3.90,44.06"/>
    </edge>
    <edge id=":clusterJ10_J23_5" function="internal">
        <lane id=":clusterJ10_J23_5_0" index="0" speed="8.03" length="4.50" shape="-2.64,29.61 -3.60,32.84 -4.33,33.70"/>
    </edge>
    <edge id=":clusterJ10_J23_13" function="internal">
        <lane id=":clusterJ10_J23_13_0" index="0" speed="8.03" length="9.79" shape="-4.33,33.70 -5.99,35.64 -9.19,37.61 -12.60,38.32"/>
    </edge>
    <edge id=":clusterJ10_J23_6" function="internal">
        <lane id=":clusterJ10_J23_6_0" index="0" speed="6.84" length="9.97" shape="-12.55,35.23 -9.65,34.88 -7.56,33.81 -6.29,32.04 -5.84,29.56"/>
    </edge>
    <edge id=":clusterJ10_J23_7" function="internal">
        <lane id=":clusterJ10_J23_7_0" index="0" speed="13.89" length="15.45" shape="-12.55,35.23 2.90,35.23"/>
    </edge>
    <edge id=":clusterJ10_J23_8" function="internal">
        <lane id=":clusterJ10_J23_8_0" index="0" speed="7.94" length="3.88" shape="-12.55,35.23 -8.71,35.78"/>
    </edge>
    <edge id=":clusterJ10_J23_14" function="internal">
        <lane id=":clusterJ10_J23_14_0" index="0" speed="7.94" length="10.28" shape="-8.71,35.78 -5.98,37.44 -4.38,40.20 -3.90,44.06"/>
    </edge>
    <edge id=":clusterJ10_J23_9" function="internal">
        <lane id=":clusterJ10_J23_9_0" index="0" speed="6.50" length="9.03" shape="-7.10,44.01 -7.40,41.55 -8.42,39.78 -10.16,38.71 -12.60,38.32"/>
    </edge>
    <edge id=":clusterJ10_J23_10" function="internal">
        <lane id=":clusterJ10_J23_10_0" index="0" speed="13.89" length="14.50" shape="-7.10,44.01 -5.84,29.56"/>
    </edge>
    <edge id=":clusterJ10_J23_11" function="internal">
        <lane id=":clusterJ10_J23_11_0" index="0" speed="8.09" length="4.44" shape="-7.10,44.01 -6.13,40.78 -5.43,39.96"/>
    </edge>
    <edge id=":clusterJ10_J23_15" function="internal">
        <lane id=":clusterJ10_J23_15_0" index="0" speed="8.09" length="9.90" shape="-5.43,39.96 -3.73,37.97 -0.52,35.98 2.90,35.23"/>
    </edge>
    <edge id=":clusterJ11_J12_J22_0" function="internal">
        <lane id=":clusterJ11_J12_J22_0_0" index="0" speed="6.57" length="9.14" shape="3.28,9.52 0.81,9.87 -0.96,10.93 -2.04,12.70 -2.43,15.17"/>
    </edge>
    <edge id=":clusterJ11_J12_J22_1" function="internal">
        <lane id=":clusterJ11_J12_J22_1_0" index="0" speed="13.89" length="14.45" shape="3.28,9.52 -11.17,9.50"/>
    </edge>
    <edge id=":clusterJ11_J12_J22_2" function="internal">
        <lane id=":clusterJ11_J12_J22_2_0" index="0" speed="7.76" length="5.99" shape="3.28,9.52 -0.57,9.03 -2.43,8.04"/>
    </edge>
    <edge id=":clusterJ11_J12_J22_12" function="internal">
        <lane id=":clusterJ11_J12_J22_12_0" index="0" speed="7.76" length="7.35" shape="-2.43,8.04 -3.31,7.58 -4.95,5.15 -5.49,1.77"/>
    </edge>
    <edge id=":clusterJ11_J12_J22_3" function="internal">
        <lane id=":clusterJ11_J12_J22_3_0" index="0" speed="6.50" length="9.03" shape="-2.29,1.78 -1.95,4.24 -0.91,5.99 0.84,7.05 3.29,7.40"/>
    </edge>
    <edge id=":clusterJ11_J12_J22_4" function="internal">
        <lane id=":clusterJ11_J12_J22_4_0" index="0" speed="13.89" length="13.39" shape="-2.29,1.78 -2.43,15.17"/>
    </edge>
    <edge id=":clusterJ11_J12_J22_5" function="internal">
        <lane id=":clusterJ11_J12_J22_5_0" index="0" speed="7.80" length="3.60" shape="-2.29,1.78 -2.86,5.16 -2.95,5.30"/>
    </edge>
    <edge id=":clusterJ11_J12_J22_13" function="internal">
        <lane id=":clusterJ11_J12_J22_13_0" index="0" speed="7.80" length="9.79" shape="-2.95,5.30 -4.53,7.58 -7.30,9.02 -11.17,9.50"/>
    </edge>
    <edge id=":clusterJ11_J12_J22_6" function="internal">
        <lane id=":clusterJ11_J12_J22_6_0" index="0" speed="6.54" length="9.10" shape="-11.17,7.38 -8.69,7.03 -6.92,5.98 -5.85,4.22 -5.49,1.77"/>
    </edge>
    <edge id=":clusterJ11_J12_J22_7" function="internal">
        <lane id=":clusterJ11_J12_J22_7_0" index="0" speed="13.89" length="14.45" shape="-11.17,7.38 3.29,7.40"/>
    </edge>
    <edge id=":clusterJ11_J12_J22_8" function="internal">
        <lane id=":clusterJ11_J12_J22_8_0" index="0" speed="7.75" length="6.01" shape="-11.17,7.38 -7.30,7.87 -5.44,8.86"/>
    </edge>
    <edge id=":clusterJ11_J12_J22_14" function="internal">
        <lane id=":clusterJ11_J12_J22_14_0" index="0" speed="7.75" length="7.37" shape="-5.44,8.86 -4.56,9.33 -2.93,11.76 -2.43,15.17"/>
    </edge>
    <edge id=":clusterJ11_J12_J22_9" function="internal">
        <lane id=":clusterJ11_J12_J22_9_0" index="0" speed="6.48" length="9.03" shape="-5.63,15.13 -5.94,12.67 -6.97,10.91 -8.71,9.85 -11.17,9.50"/>
    </edge>
    <edge id=":clusterJ11_J12_J22_10" function="internal">
        <lane id=":clusterJ11_J12_J22_10_0" index="0" speed="13.89" length="13.36" shape="-5.63,15.13 -5.49,1.77"/>
    </edge>
    <edge id=":clusterJ11_J12_J22_11" function="internal">
        <lane id=":clusterJ11_J12_J22_11_0" index="0" speed="7.82" length="3.57" shape="-5.63,15.13 -5.03,11.74 -4.96,11.64"/>
    </edge>
    <edge id=":clusterJ11_J12_J22_15" function="internal">
        <lane id=":clusterJ11_J12_J22_15_0" index="0" speed="7.82" length="9.84" shape="-4.96,11.64 -3.34,9.32 -0.57,7.88 3.29,7.40"/>
    </edge>
    <edge id=":clusterJ13_J21_0" function="internal">
        <lane id=":clusterJ13_J21_0_0" index="0" speed="6.61" length="9.33" shape="3.68,-19.93 1.12,-19.57 -0.71,-18.51 -1.82,-16.72 -2.20,-14.23"/>
    </edge>
    <edge id=":clusterJ13_J21_1" function="internal">
        <lane id=":clusterJ13_J21_1_0" index="0" speed="13.89" length="14.70" shape="3.68,-19.93 -11.02,-19.75"/>
    </edge>
    <edge id=":clusterJ13_J21_2" function="internal">
        <lane id=":clusterJ13_J21_2_0" index="0" speed="7.99" length="4.07" shape="3.68,-19.93 -0.18,-20.49 -0.33,-20.57"/>
    </edge>
    <edge id=":clusterJ13_J21_12" function="internal">
        <lane id=":clusterJ13_J21_12_0" index="0" speed="7.99" length="10.15" shape="-0.33,-20.57 -2.92,-22.15 -4.55,-24.91 -5.07,-28.78"/>
    </edge>
    <edge id=":clusterJ13_J21_3" function="internal">
        <lane id=":clusterJ13_J21_3_0" index="0" speed="6.49" length="9.03" shape="-1.87,-28.75 -1.54,-26.29 -0.51,-24.54 1.24,-23.48 3.69,-23.13"/>
    </edge>
    <edge id=":clusterJ13_J21_4" function="internal">
        <lane id=":clusterJ13_J21_4_0" index="0" speed="13.89" length="14.53" shape="-1.87,-28.75 -2.20,-14.23"/>
    </edge>
    <edge id=":clusterJ13_J21_5" function="internal">
        <lane id=":clusterJ13_J21_5_0" index="0" speed="8.01" length="4.14" shape="-1.87,-28.75 -2.71,-25.55 -3.21,-24.88"/>
    </edge>
    <edge id=":clusterJ13_J21_13" function="internal">
        <lane id=":clusterJ13_J21_13_0" index="0" speed="8.01" length="9.68" shape="-3.21,-24.88 -4.86,-22.69 -7.79,-20.60 -11.02,-19.75"/>
    </edge>
    <edge id=":clusterJ13_J21_6" function="internal">
        <lane id=":clusterJ13_J21_6_0" index="0" speed="6.64" length="9.39" shape="-11.10,-23.16 -8.48,-23.50 -6.60,-24.56 -5.47,-26.32 -5.07,-28.78"/>
    </edge>
    <edge id=":clusterJ13_J21_7" function="internal">
        <lane id=":clusterJ13_J21_7_0" index="0" speed="13.89" length="14.79" shape="-11.10,-23.16 3.69,-23.13"/>
    </edge>
    <edge id=":clusterJ13_J21_8" function="internal">
        <lane id=":clusterJ13_J21_8_0" index="0" speed="8.04" length="4.41" shape="-11.10,-23.16 -7.19,-22.59 -6.80,-22.36"/>
    </edge>
    <edge id=":clusterJ13_J21_14" function="internal">
        <lane id=":clusterJ13_J21_14_0" index="0" speed="8.04" length="9.98" shape="-6.80,-22.36 -4.40,-20.91 -2.74,-18.13 -2.20,-14.23"/>
    </edge>
    <edge id=":clusterJ13_J21_9" function="internal">
        <lane id=":clusterJ13_J21_9_0" index="0" speed="6.44" length="9.03" shape="-5.40,-14.24 -5.74,-16.71 -6.79,-18.45 -8.55,-19.46 -11.02,-19.75"/>
    </edge>
    <edge id=":clusterJ13_J21_10" function="internal">
        <lane id=":clusterJ13_J21_10_0" index="0" speed="13.89" length="14.54" shape="-5.40,-14.24 -5.07,-28.78"/>
    </edge>
    <edge id=":clusterJ13_J21_11" function="internal">
        <lane id=":clusterJ13_J21_11_0" index="0" speed="7.89" length="4.22" shape="-5.40,-14.24 -4.57,-17.42 -4.01,-18.17"/>
    </edge>
    <edge id=":clusterJ13_J21_15" function="internal">
        <lane id=":clusterJ13_J21_15_0" index="0" speed="7.89" length="9.51" shape="-4.01,-18.17 -2.44,-20.28 0.48,-22.34 3.69,-23.13"/>
    </edge>
    <edge id=":clusterJ14_J24_0" function="internal">
        <lane id=":clusterJ14_J24_0_0" index="0" speed="6.55" length="9.09" shape="43.75,38.43 41.31,38.78 39.55,39.84 38.48,41.61 38.11,44.09"/>
    </edge>
    <edge id=":clusterJ14_J24_1" function="internal">
        <lane id=":clusterJ14_J24_1_0" index="0" speed="13.89" length="14.51" shape="43.75,38.43 29.24,38.43"/>
    </edge>
    <edge id=":clusterJ14_J24_2" function="internal">